power-flow-agent/results/ieee14/2026-09-16/gpt-4o-mini/pfagent__stress/traces/02_case14-stress-001-s0.transcript.txt
==============================================================================
TRANSCRIPT  pfagent  |  openrouter:openai/gpt-4o-mini  |  case14  |  case14-stress-001-s0  run 0
==============================================================================
date: 2026-09-16   seed: 0   difficulty: stress   tool variant: None

[system]   (hash 7da5e2a37ec4, from methods/pfagent/method.json prompt_files)
You are a power system power-flow analysis assistant. You help the user complete power system analysis tasks from natural-language requests.

## What you can do
You complete tasks by calling tool functions:
1. Load an IEEE standard test system (14, 30, 57, 118, 300 buses)
2. Run AC power flow
3. Modify the load at a bus and re-solve
4. Disconnect or reconnect a line and re-solve
5. Query the network status
6. Run an N-1 contingency analysis (disconnect branches one at a time and rank the worst cases)
7. Generate remedial-action suggestions (what-if load shedding or voltage adjustment) to reduce violation risk

## Key rules
- Never fabricate any numerical result. Every voltage, power, loss, or loading value must come from a tool return value.
- If a tool reports an error or a non-converged power flow, say so explicitly and do not report numbers for that state.
- If the request is ambiguous, state the interpretation you are using.
- Bus and line identifiers in the request are MATPOWER 1-based ids; pass them to the tools as given, unless the request itself states a different indexing convention for that identifier (e.g. "(0-based)"), in which case convert it to the MATPOWER 1-based id before calling any tool.
- After a network modification, re-solve before reporting any value.
- Always reply in English.

## Reply format
After each analysis, reply in this structure:
1. One-sentence summary
2. Key numbers (total load, total generation, total losses, voltage range) taken from the tool outputs
3. Violations, if any
4. Suggested next step

[user]
Load the 14-bus test case (case14), disconnect the line between bus 2 and bus 4, disconnect the transformer branch between bus 7 and bus 8, and finally rerun the power flow, then list every line whose loading is above 100%.

[tools available to the model]   (function-calling schema, --tool-variant v1; enum values and defaults as sent)
  load_case(case_name: string* in {case14, case30, case57, case118, case300})  Load IEEE test case.
  run_powerflow()  Run power flow on current case.
  modify_load(bus_id: integer*, p_mw: number*, q_mvar: number)  Modify bus load and recompute.
  disconnect_line(from_bus: integer*, to_bus: integer*)  Disconnect line/branch between two buses and recompute.
  reconnect_line(from_bus: integer*, to_bus: integer*)  Reconnect line/branch between two buses and recompute.
  get_most_loaded_branch()  Get most loaded branch.
  run_n1_contingency(top_k: integer (default 5), criteria: string in {max_violations, max_overload, min_voltage} (default max_violations), max_candidates: integer (default 0))  Run N-1 contingency analysis.
  recommend_remedial_actions(max_actions: integer (default 5), allow_load_shed: boolean (default True), allow_voltage_control: boolean (default True), include_best_comparison: boolean (default True))  Recommend remedial actions.
  apply_remedial_action(action_index: integer*, confirmed: boolean (default False))  Apply one remedial action by index.
  get_status()  Get current network status.
  generate_plot(plot_type: string* in {voltage_heatmap, flow_diagram, violation_overview, comparison})  Generate one plot.

--- round 1 ---
[assistant]   (794 in / 72 out tokens, 1.3 s)
(no text)
tool_call  load_case(case_name="case14")
tool_call  disconnect_line(from_bus=2, to_bus=4)
tool_call  disconnect_line(from_bus=7, to_bus=8)
[tool load_case]   (gate: not applied)
{"case_name": "case14", "n_buses": 14, "n_generators": 5, "n_lines": 20, "n_loads": 11, "total_load_mw": 270.1361769951196, "total_gen_capacity_mw": 772.4000000000001}
[tool disconnect_line]   (gate: pass)
{"case_name": "case14", "converged": true, "bus_voltages": [{"bus_id": 1, "vm_pu": 1.06, "va_deg": 0.0, "is_violation": true, "violation_type": "overvoltage"}, {"bus_id": 2, "vm_pu": 1.0450000000000002, "va_deg": -4.717168458565059, "is_violation": false, "violation_type": null}, {"bus_id": 3, "vm_pu": 1.0100000000000002, "va_deg": -14.989414012605168, "is_violation": false, "violation_type": null}, {"bus_id": 4, "vm_pu": 1.0057495985251972, "va_deg": -13.87156878733443, "is_violation": false, "violation_type": null}, {"bus_id": 5, "vm_pu": 1.009963629704735, "va_deg": -11.265277456811052, "is_violation": false, "violation_type": null}, {"bus_id": 6, "vm_pu": 1.07, "va_deg": -17.301951825484522, "is_violation": true, "violation_type": "overvoltage"}, {"bus_id": 7, "vm_pu": 1.0552918141961363, "va_deg": -16.852871014589308, "is_violation": true, "violation_type": "overvoltage"}, {"bus_id": 8, "vm_pu": 1.0899999999999999, "va_deg": -16.85287101458931, "is_violation": true, "violation_type": "overvoltage"}, {"bus_id": 9, "vm_pu": 1.0488858748913543, "va_deg": -18.390039539540993, "is_violation": false, "violation_type": null}, {"bus_id": 10, "vm_pu": 1.0454075604502657, "va_deg": -18.467725834482273, "is_violation": false, "violation_type": null}, {"bus_id": 11, "vm_pu": 1.0541584071622025, "va_deg": -18.00621316956623, "is_violation": true, "violation_type": "overvoltage"}, {"bus_id": 12, "vm_pu": 1.054514314502744, "va_deg": -18.200010678394428, "is_violation": true, "violation_type": "overvoltage"}, {"bus_id": 13, "vm_pu": 1.0486966921906962, "va_deg": -18.310873429946135, "is_violation": false, "violation_type": null}, {"bus_id": 14, "vm_pu": 1.0312185266117917, "va_deg": -19.336107133675473, "is_violation": false, "violation_type": null}], "line_flows": [{"line_id": 0, "from_bus": 1, "to_bus": 2, "p_from_mw": 148.8619882790673, "q_from_mvar": -18.510397760563325, "loading_percent": 1.4294684679733725, "is_violation": false}, {"line_id": 1, "from_bus": 1, "to_bus": 5, "p_from_mw": 96.1260696440245, "q_from_mvar": 6.977650531138789, "loading_percent": 0.918645445171243, "is_violation": false}, {"line_id": 2, "from_bus": 2, "to_bus": 3, "p_from_mw": 96.07271088773592, "q_from_mvar": 1.8251021488308206, "loading_percent": 0.928810063707488, "is_violation": false}, {"line_id": 3, "from_bus": 2, "to_bus": 4, "p_from_mw": 0.0, "q_from_mvar": 0.0, "loading_percent": 0.0, "is_violation": false}, {"line_id": 4, "from_bus": 2, "to_bus": 5, "p_from_mw": 69.91190459013633, "q_from_mvar": 0.22904315231968017, "loading_percent": 0.6757747791896503, "is_violation": false}, {"line_id": 5, "from_bus": 3, "to_bus": 4, "p_from_mw": -9.154031914529085, "q_from_mvar": 5.556775349700652, "loading_percent": 0.1143000177985112, "is_violation": false}, {"line_id": 6, "from_bus": 4, "to_bus": 5, "p_from_mw": -101.85150682533816, "q_from_mvar": 24.7201296043262, "loading_percent": 1.0526192215965626, "is_violation": false}, {"line_id": 7, "from_bus": 6, "to_bus": 11, "p_from_mw": 9.00657308285625, "q_from_mvar": 4.264086720927391, "loading_percent": 0.09407135266075127, "is_violation": false}, {"line_id": 8, "from_bus": 6, "to_bus": 12, "p_from_mw": 8.166264642843515, "q_from_mvar": 2.607844541596004, "loading_percent": 0.08092662017093469, "is_violation": false}, {"line_id": 9, "from_bus": 6, "to_bus": 13, "p_from_mw": 19.175681390154452, "q_from_mvar": 7.894212925991311, "loading_percent": 0.19576184929236315, "is_violation": false}, {"line_id": 10, "from_bus": 9, "to_bus": 10, "p_from_mw": 2.965065801259321, "q_from_mvar": 3.202574411041374, "loading_percent": 0.04203028913560571, "is_violation": false}, {"line_id": 11, "from_bus": 9, "to_bus": 14, "p_from_mw": 8.069426987202771, "q_from_mvar": 3.1146649765699594, "loading_percent": 0.08329829333981904, "is_violation": false}, {"line_id": 12, "from_bus": 10, "to_bus": 11, "p_from_mw": -5.622274466114916, "q_from_mvar": -2.342570257339181, "loading_percent": 0.05885076445183553, "is_violation": false}, {"line_id": 13, "from_bus": 12, "to_bus": 13, "p_from_mw": 2.0093421955106168, "q_from_mvar": 0.8494083246410118, "loading_percent": 0.02089622916698731, "is_violation": false}, {"line_id": 14, "from_bus": 13, "to_bus": 14, "p_from_mw": 6.583134575349724, "q_from_mvar": 2.083175503372632, "loading_percent": 0.06650750370157066, "is_violation": false}, {"line_id": 100000, "from_bus": 4, "to_bus": 7, "p_from_mw": 26.99077731205165, "q_from_mvar": -12.534888571909386, "loading_percent": 0.2988821590580969, "is_violation": false}, {"line_id": 100001, "from_bus": 4, "to_bus": 9, "p_from_mw": 15.420467689230874, "q_from_mvar": -1.4370693806737092, "loading_percent": 0.155542911456598, "is_violation": false}, {"line_id": 100002, "from_bus": 5, "to_bus": 6, "p_from_mw": 48.384907723011935, "q_from_mvar": 8.421433467466315, "loading_percent": 0.4911899909489193, "is_violation": false}, {"line_id": 100003, "from_bus": 7, "to_bus": 8, "p_from_mw": 1.18159262673738e-14, "q_from_mvar": -20.79322416373311, "loading_percent": 0.19902795083313224, "is_violation": false}, {"line_id": 100004, "from_bus": 7, "to_bus": 9, "p_from_mw": 26.99077731115475, "q_from_mvar": 6.507103720334937, "loading_percent": 0.2657514320147027, "is_violation": false}], "total_generation_mw": 287.1627930613614, "total_load_mw": 270.1361769951196, "total_loss_mw": 17.026616097047704, "voltage_violations": [{"bus_id": 1, "vm_pu": 1.06, "va_deg": 0.0, "is_violation": true, "violation_type": "overvoltage"}, {"bus_id": 6, "vm_pu": 1.07, "va_deg": -17.301951825484522, "is_violation": true, "violation_type": "overvoltage"}, {"bus_id": 7, "vm_pu": 1.0552918141961363, "va_deg": -16.852871014589308, "is_violation": true, "violation_type": "overvoltage"}, {"bus_id": 8, "vm_pu": 1.0899999999999999, "va_deg": -16.85287101458931, "is_violation": true, "violation_type": "overvoltage"}, {"bus_id": 11, "vm_pu": 1.0541584071622025, "va_deg": -18.00621316956623, "is_violation": true, "violation_type": "overvoltage"}, {"bus_id": 12, "vm_pu": 1.054514314502744, "va_deg": -18.200010678394428, "is_violation": true, "violation_type": "overvoltage"}], "thermal_violations": [], "summary_text": "", "solver_backend": "pandapower", "llm_prompt": null, "llm_response": null}
[tool disconnect_line]   (gate: FAIL, not enforced)
{"case_name": "case14", "converged": true, "bus_voltages": [{"bus_id": 1, "vm_pu": 1.06, "va_deg": 0.0, "is_violation": true, "violation_type": "overvoltage"}, {"bus_id": 2, "vm_pu": 1.0450000000000002, "va_deg": -4.733791919883227, "is_violation": false, "violation_type": null}, {"bus_id": 3, "vm_pu": 1.0100000000000002, "va_deg": -15.05115695455365, "is_violation": false, "violation_type": null}, {"bus_id": 4, "vm_pu": 0.9966006580160334, "va_deg": -13.757540266990194, "is_violation": false, "violation_type": null}, {"bus_id": 5, "vm_pu": 1.0041848264307436, "va_deg": -11.221197422757298, "is_violation": false, "violation_type": null}, {"bus_id": 6, "vm_pu": 1.07, "va_deg": -17.500845073459974, "is_violation": true, "violation_type": "overvoltage"}, {"bus_id": 7, "vm_pu": 1.022962526751017, "va_deg": -16.738992399541594, "is_violation": false, "violation_type": null}, {"bus_id": 8, "vm_pu": NaN, "va_deg": NaN, "is_violation": false, "violation_type": null}, {"bus_id": 9, "vm_pu": 1.0261415083922802, "va_deg": -18.296022248325883, "is_violation": false, "violation_type": null}, {"bus_id": 10, "vm_pu": 1.0265563176633956, "va_deg": -18.42060654071331, "is_violation": false, "violation_type": null}, {"bus_id": 11, "vm_pu": 1.0445219190481851, "va_deg": -18.067475273850082, "is_violation": false, "violation_type": null}, {"bus_id": 12, "vm_pu": 1.05279078010362, "va_deg": -18.395706086413266, "is_violation": true, "violation_type": "overvoltage"}, {"bus_id": 13, "vm_pu": 1.045345386993044, "va_deg": -18.46552076752805, "is_violation": false, "violation_type": null}, {"bus_id": 14, "vm_pu": 1.0166762907582714, "va_deg": -19.374329454757294, "is_violation": false, "violation_type": null}], "line_flows": [{"line_id": 0, "from_bus": 1, "to_bus": 2, "p_from_mw": 149.36408406962056, "q_from_mvar": -18.63010402653091, "loading_percent": 1.4343573617893373, "is_violation": false}, {"line_id": 1, "from_bus": 1, "to_bus": 5, "p_from_mw": 95.87907278910949, "q_from_mvar": 9.65936549757829, "loading_percent": 0.9199606567385374, "is_violation": false}, {"line_id": 2, "from_bus": 2, "to_bus": 3, "p_from_mw": 96.48061607307122, "q_from_mvar": 1.8033122669152353, "loading_percent": 0.9327482228165719, "is_violation": false}, {"line_id": 3, "from_bus": 2, "to_bus": 4, "p_from_mw": 0.0, "q_from_mvar": 0.0, "loading_percent": 0.0, "is_violation": false}, {"line_id": 4, "from_bus": 2, "to_bus": 5, "p_from_mw": 69.97962382198627, "q_from_mvar": 3.5846266397891338, "loading_percent": 0.6781017639388459, "is_violation": false}, {"line_id": 5, "from_bus": 3, "to_bus": 4, "p_from_mw": -8.779845239200604, "q_from_mvar": 10.84994406279053, "loading_percent": 0.1498069683532785, "is_violation": false}, {"line_id": 6, "from_bus": 4, "to_bus": 5, "p_from_mw": -100.06537660945429, "q_from_mvar": 16.102453997133033, "loading_percent": 1.0272565842703023, "is_violation": false}, {"line_id": 7, "from_bus": 6, "to_bus": 11, "p_from_mw": 9.865483633274232, "q_from_mvar": 9.02260646854901, "loading_percent": 0.12620776232176398, "is_violation": false}, {"line_id": 8, "from_bus": 6, "to_bus": 12, "p_from_mw": 8.418350488441915, "q_from_mvar": 3.207169388186152, "loading_percent": 0.08504278861815172, "is_violation": false}, {"line_id": 9, "from_bus": 6, "to_bus": 13, "p_from_mw": 19.716554624500247, "q_from_mvar": 10.360381070074206, "loading_percent": 0.2102601145076613, "is_violation": false}, {"line_id": 10, "from_bus": 9, "to_bus": 10, "p_from_mw": 2.209073613963147, "q_from_mvar": -1.3323894531119322, "loading_percent": 0.025394538251666595, "is_violation": false}, {"line_id": 11, "from_bus": 9, "to_bus": 14, "p_from_mw": 7.356296558533586, "q_from_mvar": 0.20223950840769483, "loading_percent": 0.0724403998956049, "is_violation": false}, {"line_id": 12, "from_bus": 10, "to_bus": 11, "p_from_mw": -6.374769646764909, "q_from_mvar": -6.868244682401619, "loading_percent": 0.09220515107326903, "is_violation": false}, {"line_id": 13, "from_bus": 12, "to_bus": 13, "p_from_mw": 2.2531984399507454, "q_from_mvar": 1.431605074949979, "loading_percent": 0.025612838873647813, "is_violation": false}, {"line_id": 14, "from_bus": 13, "to_bus": 14, "p_from_mw": 7.3249492349104735, "q_from_mvar": 5.05208408985803, "loading_percent": 0.08598218056207653, "is_violation": false}, {"line_id": 100000, "from_bus": 4, "to_bus": 7, "p_from_mw": 25.9272028855303, "q_from_mvar": -1.2468716903544845, "loading_percent": 0.2630879357813623, "is_violation": false}, {"line_id": 100001, "from_bus": 4, "to_bus": 9, "p_from_mw": 15.014919506157742, "q_from_mvar": 1.0280951283094426, "loading_percent": 0.15253950355624837, "is_violation": false}, {"line_id": 100002, "from_bus": 5, "to_bus": 6, "p_from_mw": 50.03677733783842, "q_from_mvar": 5.9305012516022, "loading_percent": 0.5068385807539639, "is_violation": false}, {"line_id": 100003, "from_bus": 7, "to_bus": 8, "p_from_mw": 0.0, "q_from_mvar": 0.0, "loading_percent": NaN, "is_violation": false}, {"line_id": 100004, "from_bus": 7, "to_bus": 9, "p_from_mw": 25.927202884049027, "q_from_mvar": -2.6037644884024975, "loading_percent": 0.25730000118421936, "is_violation": false}], "total_generation_mw": 287.41789199699963, "total_load_mw": 270.1361769951196, "total_loss_mw": 17.281715089657098, "voltage_violations": [{"bus_id": 1, "vm_pu": 1.06, "va_deg": 0.0, "is_violation": true, "violation_type": "overvoltage"}, {"bus_id": 6, "vm_pu": 1.07, "va_deg": -17.500845073459974, "is_violation": true, "violation_type": "overvoltage"}, {"bus_id": 12, "vm_pu": 1.05279078010362, "va_deg": -18.395706086413266, "is_violation": true, "violation_type": "overvoltage"}], "thermal_violations": [], "summary_text": "", "solver_backend": "pandapower", "llm_prompt": null, "llm_response": null}

--- round 2 ---
[assistant]   (5830 in / 135 out tokens, 2.0 s)
The power flow analysis has been completed after disconnecting the specified lines.

1. Summary: The power flow converged successfully after the modifications.
2. Key numbers: 
   - Total Load: 270.14 MW
   - Total Generation: 287.42 MW
   - Total Losses: 17.28 MW
   - Voltage Range: 0.9966 to 1.07 p.u.
3. Violations: There are voltage violations at buses 1, 6, and 12 due to overvoltage.
4. Suggested next step: Consider running a contingency analysis or recommending remedial actions to address the voltage violations.

--- round 2 ---
[assistant]   (6120 in / 11 out tokens, 1.3 s)
(no text)
tool_call  run_powerflow()
[tool run_powerflow]   (gate: FAIL, not enforced)
{"case_name": "case14", "converged": true, "bus_voltages": [{"bus_id": 1, "vm_pu": 1.06, "va_deg": 0.0, "is_violation": true, "violation_type": "overvoltage"}, {"bus_id": 2, "vm_pu": 1.0450000000000002, "va_deg": -4.733791919883227, "is_violation": false, "violation_type": null}, {"bus_id": 3, "vm_pu": 1.0100000000000002, "va_deg": -15.05115695455365, "is_violation": false, "violation_type": null}, {"bus_id": 4, "vm_pu": 0.9966006580160334, "va_deg": -13.757540266990194, "is_violation": false, "violation_type": null}, {"bus_id": 5, "vm_pu": 1.0041848264307436, "va_deg": -11.221197422757298, "is_violation": false, "violation_type": null}, {"bus_id": 6, "vm_pu": 1.07, "va_deg": -17.500845073459974, "is_violation": true, "violation_type": "overvoltage"}, {"bus_id": 7, "vm_pu": 1.022962526751017, "va_deg": -16.738992399541594, "is_violation": false, "violation_type": null}, {"bus_id": 8, "vm_pu": NaN, "va_deg": NaN, "is_violation": false, "violation_type": null}, {"bus_id": 9, "vm_pu": 1.0261415083922802, "va_deg": -18.296022248325883, "is_violation": false, "violation_type": null}, {"bus_id": 10, "vm_pu": 1.0265563176633956, "va_deg": -18.42060654071331, "is_violation": false, "violation_type": null}, {"bus_id": 11, "vm_pu": 1.0445219190481851, "va_deg": -18.067475273850082, "is_violation": false, "violation_type": null}, {"bus_id": 12, "vm_pu": 1.05279078010362, "va_deg": -18.395706086413266, "is_violation": true, "violation_type": "overvoltage"}, {"bus_id": 13, "vm_pu": 1.045345386993044, "va_deg": -18.46552076752805, "is_violation": false, "violation_type": null}, {"bus_id": 14, "vm_pu": 1.0166762907582714, "va_deg": -19.374329454757294, "is_violation": false, "violation_type": null}], "line_flows": [{"line_id": 0, "from_bus": 1, "to_bus": 2, "p_from_mw": 149.36408406962056, "q_from_mvar": -18.63010402653091, "loading_percent": 1.4343573617893373, "is_violation": false}, {"line_id": 1, "from_bus": 1, "to_bus": 5, "p_from_mw": 95.87907278910949, "q_from_mvar": 9.65936549757829, "loading_percent": 0.9199606567385374, "is_violation": false}, {"line_id": 2, "from_bus": 2, "to_bus": 3, "p_from_mw": 96.48061607307122, "q_from_mvar": 1.8033122669152353, "loading_percent": 0.9327482228165719, "is_violation": false}, {"line_id": 3, "from_bus": 2, "to_bus": 4, "p_from_mw": 0.0, "q_from_mvar": 0.0, "loading_percent": 0.0, "is_violation": false}, {"line_id": 4, "from_bus": 2, "to_bus": 5, "p_from_mw": 69.97962382198627, "q_from_mvar": 3.5846266397891338, "loading_percent": 0.6781017639388459, "is_violation": false}, {"line_id": 5, "from_bus": 3, "to_bus": 4, "p_from_mw": -8.779845239200604, "q_from_mvar": 10.84994406279053, "loading_percent": 0.1498069683532785, "is_violation": false}, {"line_id": 6, "from_bus": 4, "to_bus": 5, "p_from_mw": -100.06537660945429, "q_from_mvar": 16.102453997133033, "loading_percent": 1.0272565842703023, "is_violation": false}, {"line_id": 7, "from_bus": 6, "to_bus": 11, "p_from_mw": 9.865483633274232, "q_from_mvar": 9.02260646854901, "loading_percent": 0.12620776232176398, "is_violation": false}, {"line_id": 8, "from_bus": 6, "to_bus": 12, "p_from_mw": 8.418350488441915, "q_from_mvar": 3.207169388186152, "loading_percent": 0.08504278861815172, "is_violation": false}, {"line_id": 9, "from_bus": 6, "to_bus": 13, "p_from_mw": 19.716554624500247, "q_from_mvar": 10.360381070074206, "loading_percent": 0.2102601145076613, "is_violation": false}, {"line_id": 10, "from_bus": 9, "to_bus": 10, "p_from_mw": 2.209073613963147, "q_from_mvar": -1.3323894531119322, "loading_percent": 0.025394538251666595, "is_violation": false}, {"line_id": 11, "from_bus": 9, "to_bus": 14, "p_from_mw": 7.356296558533586, "q_from_mvar": 0.20223950840769483, "loading_percent": 0.0724403998956049, "is_violation": false}, {"line_id": 12, "from_bus": 10, "to_bus": 11, "p_from_mw": -6.374769646764909, "q_from_mvar": -6.868244682401619, "loading_percent": 0.09220515107326903, "is_violation": false}, {"line_id": 13, "from_bus": 12, "to_bus": 13, "p_from_mw": 2.2531984399507454, "q_from_mvar": 1.431605074949979, "loading_percent": 0.025612838873647813, "is_violation": false}, {"line_id": 14, "from_bus": 13, "to_bus": 14, "p_from_mw": 7.3249492349104735, "q_from_mvar": 5.05208408985803, "loading_percent": 0.08598218056207653, "is_violation": false}, {"line_id": 100000, "from_bus": 4, "to_bus": 7, "p_from_mw": 25.9272028855303, "q_from_mvar": -1.2468716903544845, "loading_percent": 0.2630879357813623, "is_violation": false}, {"line_id": 100001, "from_bus": 4, "to_bus": 9, "p_from_mw": 15.014919506157742, "q_from_mvar": 1.0280951283094426, "loading_percent": 0.15253950355624837, "is_violation": false}, {"line_id": 100002, "from_bus": 5, "to_bus": 6, "p_from_mw": 50.03677733783842, "q_from_mvar": 5.9305012516022, "loading_percent": 0.5068385807539639, "is_violation": false}, {"line_id": 100003, "from_bus": 7, "to_bus": 8, "p_from_mw": 0.0, "q_from_mvar": 0.0, "loading_percent": NaN, "is_violation": false}, {"line_id": 100004, "from_bus": 7, "to_bus": 9, "p_from_mw": 25.927202884049027, "q_from_mvar": -2.6037644884024975, "loading_percent": 0.25730000118421936, "is_violation": false}], "total_generation_mw": 287.41789199699963, "total_load_mw": 270.1361769951196, "total_loss_mw": 17.281715089657098, "voltage_violations": [{"bus_id": 1, "vm_pu": 1.06, "va_deg": 0.0, "is_violation": true, "violation_type": "overvoltage"}, {"bus_id": 6, "vm_pu": 1.07, "va_deg": -17.500845073459974, "is_violation": true, "violation_type": "overvoltage"}, {"bus_id": 12, "vm_pu": 1.05279078010362, "va_deg": -18.395706086413266, "is_violation": true, "violation_type": "overvoltage"}], "thermal_violations": [], "summary_text": "", "solver_backend": "pandapower", "llm_prompt": null, "llm_response": null}

--- round 3 ---
[assistant]   (8486 in / 189 out tokens, 2.3 s)
The power flow analysis has been re-evaluated after the network modifications.

1. Summary: The power flow converged successfully, but bus 8 remains isolated with no valid voltage due to the disconnection of the line between bus 7 and bus 8.
2. Key numbers: 
   - Total Load: 270.14 MW
   - Total Generation: 287.42 MW
   - Total Losses: 17.28 MW
   - Voltage Range: 0.9966 to 1.07 p.u. (with bus 8 having no valid voltage)
3. Violations: There are voltage violations at buses 1, 6, and 12 due to overvoltage, and bus 8 is isolated with no voltage.
4. Suggested next step: Consider reconnecting the line between bus 7 and bus 8 to restore network connectivity and re-evaluate the power flow.

[final answer]
No numerical result is reported. Verification failed: bus 8 has no valid voltage because disconnecting the branch between bus 7 and bus 8 isolated it from the slack bus, so the network is split. Suggested next step: reconnect the branch between bus 7 and bus 8, or analyse the connected part separately. This is a declared failure of the verification step, not a claim that the network failed to converge.

[verification gate]   outcome: abstained after 2 attempt(s)
attempt 1: FAIL
      converged              pass  residual 0
      balance                pass  residual 8.78e-08
      no_isolated_buses      FAIL  residual 1
      faithfulness           pass  residual 0
      currency               pass  residual 0
attempt 2: FAIL
      converged              pass  residual 0
      balance                pass  residual 8.78e-08
      no_isolated_buses      FAIL  residual 1
      faithfulness           pass  residual 0
      currency               pass  residual 0
[retry message to the model]
Verification failed before this answer could be accepted. Failed condition(s):
- bus 8 has no valid voltage because disconnecting the branch between bus 7 and bus 8 isolated it from the slack bus, so the network is split.
Produce a corrected final answer. You may call tools again if needed, but only to inspect the current state (e.g. re-running the power flow) -- do not undo or reverse a network change the request asked for (do not reconnect a line it asked you to disconnect, do not revert a load value it asked you to set) just to reach a state that passes verification. If the requested state genuinely fails, report that failure. Do not change a number without a tool call to support it.

[status] verification_failed
